306 Power Project -kimi k3-v4/Phase6/results/generator_3ph/fault_summary.csv
Fault_location,Fault_branch_sensor,Phase,Fault_enabled,Initial_window_start_s,Initial_window_end_exclusive_s,Initial_samples,Pre_event_current_RMS_A,Initial_current_waveform_RMS_A,Initial_peak_abs_current_A,Initial_phase_voltage_waveform_RMS_V,Full_window_fundamental_current_RMS_A,Fundamental_window_start_s,Fundamental_window_end_exclusive_s,Fundamental_samples,Initial_window_status,Fundamental_window_status
GEN,faultGEN,A,1,0.15,0.17,100,1.2701724206462e-05,161825.749048291,277362.240305281,1761.44422365239,111300.091904641,0.171,0.21,39,full_initial_cycle_measured,full_post_fault_DFT_windows_measured
GEN,faultGEN,B,1,0.15,0.17,100,1.27017238631866e-05,153836.442623736,260993.614034756,1883.31890582137,110889.377801017,0.171,0.21,39,full_initial_cycle_measured,full_post_fault_DFT_windows_measured
GEN,faultGEN,C,1,0.15,0.17,100,1.27017255895622e-05,115037.362738933,186674.2749972,2121.11453080853,110177.396842326,0.171,0.21,39,full_initial_cycle_measured,full_post_fault_DFT_windows_measured
